<?xml version="1.0" encoding="UTF-8"?>

<!-- generated on 2025-03-19 11:54:46 by Eclipse SUMO netedit Version 1.18.0
<configuration xmlns:xsi="http://www.w3.org/2001/XMLSchema-instance" xsi:noNamespaceSchemaLocation="http://sumo.dlr.de/xsd/neteditConfiguration.xsd">

    <input>
        <additional-files value="/home/youcef/Desktop/Ramp/data/1ramp_2x1x3/ramp.add.xml"/>
        <sumo-net-file value="/home/youcef/Desktop/Ramp/data/1ramp_2x1x3/ramp.net.xml"/>
    </input>

    <output>
        <output-file value="/home/youcef/Desktop/Ramp/data/1ramp_2x1x3/ramp.net.xml"/>
    </output>

    <processing>
        <geometry.min-radius.fix.railways value="false"/>
        <geometry.max-grade.fix value="false"/>
        <offset.disable-normalization value="true"/>
        <lefthand value="0"/>
    </processing>

    <junctions>
        <no-turnarounds value="true"/>
        <junctions.corner-detail value="5"/>
        <junctions.limit-turn-speed value="5.50"/>
        <rectangular-lane-cut value="0"/>
    </junctions>

    <pedestrian>
        <walkingareas value="0"/>
    </pedestrian>

</configuration>
-->

<net version="1.16" junctionCornerDetail="5" limitTurnSpeed="5.50" xmlns:xsi="http://www.w3.org/2001/XMLSchema-instance" xsi:noNamespaceSchemaLocation="http://sumo.dlr.de/xsd/net_file.xsd">

    <location netOffset="0.00,0.00" convBoundary="-784.72,-107.95,457.90,207.30" origBoundary="-10000000000.00,-10000000000.00,10000000000.00,10000000000.00" projParameter="!"/>

    <edge id=":highway_beginning_0" function="internal">
        <lane id=":highway_beginning_0_0" index="0" speed="20.83" length="18.28" shape="-459.95,95.88 -442.18,91.62"/>
    </edge>
    <edge id=":highway_beginning_1" function="internal">
        <lane id=":highway_beginning_1_0" index="0" speed="27.77" length="18.35" shape="-459.41,99.04 -441.45,94.82"/>
        <lane id=":highway_beginning_1_1" index="1" speed="27.77" length="18.35" shape="-458.87,102.19 -441.01,97.99"/>
        <lane id=":highway_beginning_1_2" index="2" speed="27.77" length="18.35" shape="-458.33,105.35 -440.56,101.16"/>
    </edge>
    <edge id=":merge_beginning_0" function="internal">
        <lane id=":merge_beginning_0_0" index="0" speed="18.05" length="21.29" shape="36.67,47.93 40.60,48.24 45.18,48.39 50.83,48.50 57.94,48.65"/>
    </edge>
    <edge id=":merge_beginning_1" function="internal">
        <lane id=":merge_beginning_1_0" index="0" speed="24.99" length="13.24" shape="44.40,52.24 57.85,51.85"/>
        <lane id=":merge_beginning_1_1" index="1" speed="24.99" length="13.24" shape="44.54,55.44 57.77,55.05"/>
        <lane id=":merge_beginning_1_2" index="2" speed="24.99" length="13.24" shape="44.67,58.64 57.68,58.25"/>
    </edge>
    <edge id=":merge_end_0" function="internal">
        <lane id=":merge_end_0_0" index="0" speed="24.99" length="13.79" shape="251.51,59.63 265.26,60.90"/>
        <lane id=":merge_end_0_1" index="1" speed="24.99" length="13.79" shape="251.37,62.83 265.10,64.10"/>
        <lane id=":merge_end_0_2" index="2" speed="24.99" length="13.79" shape="251.23,66.03 264.93,67.29"/>
    </edge>
    <edge id=":off_ramp_beginning_0" function="internal">
        <lane id=":off_ramp_beginning_0_0" index="0" speed="13.89" length="7.89" shape="-380.39,73.59 -378.38,72.45 -377.42,70.97 -376.49,69.42 -374.56,68.06"/>
        <lane id=":off_ramp_beginning_0_1" index="1" speed="13.89" length="7.89" shape="-380.39,73.59 -378.25,72.93 -376.80,72.43 -375.37,71.87 -373.31,71.00"/>
    </edge>
    <edge id=":off_up_stream_beginning_0" function="internal">
        <lane id=":off_up_stream_beginning_0_0" index="0" speed="27.77" length="8.20" shape="-576.22,121.75 -573.95,120.89 -572.53,119.95 -571.10,119.02 -568.82,118.20"/>
        <lane id=":off_up_stream_beginning_0_1" index="1" speed="27.77" length="8.20" shape="-576.22,121.75 -573.83,121.38 -572.14,121.50 -570.44,121.64 -568.05,121.31"/>
        <lane id=":off_up_stream_beginning_0_2" index="2" speed="27.77" length="8.20" shape="-575.40,124.84 -573.03,124.47 -571.35,124.60 -569.66,124.75 -567.28,124.41"/>
        <lane id=":off_up_stream_beginning_0_3" index="3" speed="27.77" length="8.20" shape="-574.58,127.94 -572.22,127.57 -570.55,127.70 -568.88,127.85 -566.51,127.52"/>
    </edge>
    <edge id=":ramp_meter_0" function="internal">
        <lane id=":ramp_meter_0_0" index="0" speed="13.89" length="8.10" shape="-6.33,32.96 -4.42,34.37 -3.32,35.63 -2.21,36.86 -0.25,38.17"/>
        <lane id=":ramp_meter_0_1" index="1" speed="13.89" length="8.10" shape="-7.95,35.72 -5.78,36.71 -4.13,37.01 -2.47,37.29 -0.25,38.17"/>
    </edge>

    <edge id="acceleration_area" from="merge_beginning" to="merge_end" priority="-1" spreadType="center" shape="79.43,54.04 103.21,54.69 251.44,61.23">
        <lane id="acceleration_area_0" index="0" speed="22.22" length="193.79" acceleration="1" shape="57.94,48.65 103.38,49.89 251.65,56.43"/>
        <lane id="acceleration_area_1" index="1" speed="22.22" length="193.79" shape="57.85,51.85 103.27,53.09 251.51,59.63"/>
        <lane id="acceleration_area_2" index="2" speed="22.22" length="193.79" shape="57.77,55.05 103.15,56.29 251.37,62.83"/>
        <lane id="acceleration_area_3" index="3" speed="22.22" length="193.79" shape="57.68,58.25 103.04,59.49 251.23,66.03"/>
    </edge>
    <edge id="end_main_road" from="merge_end" to="higway_end" priority="-1" spreadType="center">
        <lane id="end_main_road_0" index="0" speed="27.77" length="193.07" shape="265.26,60.90 458.07,71.00"/>
        <lane id="end_main_road_1" index="1" speed="27.77" length="193.07" shape="265.10,64.10 457.90,74.20"/>
        <lane id="end_main_road_2" index="2" speed="27.77" length="193.07" shape="264.93,67.29 457.73,77.40"/>
    </edge>
    <edge id="entry" from="entry" to="off_up_stream_beginning" priority="-1" spreadType="center" shape="-784.72,207.30 -743.39,185.28 -696.33,164.29 -653.51,148.26 -594.27,129.84 -571.54,123.82">
        <lane id="entry_0" index="0" speed="27.77" length="225.64" shape="-786.22,204.48 -744.80,182.40 -697.54,161.33 -654.55,145.23 -595.16,126.76 -576.22,121.75"/>
        <lane id="entry_1" index="1" speed="27.77" length="225.64" shape="-784.72,207.30 -743.39,185.28 -696.33,164.29 -653.51,148.26 -594.27,129.84 -575.40,124.84"/>
        <lane id="entry_2" index="2" speed="27.77" length="225.64" shape="-783.22,210.12 -741.98,188.16 -695.12,167.25 -652.47,151.29 -593.38,132.92 -574.58,127.94"/>
    </edge>
    <edge id="main_road" from="highway_beginning" to="merge_beginning" priority="-1" spreadType="center" shape="-480.85,104.34 -459.67,101.35 -421.91,94.56 -343.49,78.56 -221.14,65.91 -127.29,61.57 -17.73,56.66 14.14,55.87 46.00,55.42 79.43,54.04">
        <lane id="main_road_0" index="0" speed="27.77" length="488.34" shape="-441.45,94.82 -422.51,91.42 -343.98,75.39 -221.38,62.72 -127.44,58.37 -17.84,53.46 14.08,52.67 44.40,52.24"/>
        <lane id="main_road_1" index="1" speed="27.77" length="488.34" shape="-441.01,97.99 -421.91,94.56 -343.49,78.56 -221.14,65.91 -127.29,61.57 -17.73,56.66 14.14,55.87 44.54,55.44"/>
        <lane id="main_road_2" index="2" speed="27.77" length="488.34" shape="-440.56,101.16 -421.31,97.70 -343.00,81.73 -220.90,69.10 -127.14,64.77 -17.62,59.86 14.20,59.07 44.67,58.64"/>
    </edge>
    <edge id="off_ramp" from="off_ramp_beginning" to="off_ramp_end" priority="-1" spreadType="roadCenter" shape="-376.19,73.97 -353.57,64.32 -334.01,53.54 -311.31,38.22 -291.71,15.41 -274.36,-8.78 -258.91,-38.06">
        <lane id="off_ramp_0" index="0" speed="13.89" length="161.26" shape="-374.56,68.06 -355.68,60.00 -336.52,49.44 -314.53,34.60 -295.49,12.44 -278.45,-11.31 -263.16,-40.30"/>
        <lane id="off_ramp_1" index="1" speed="13.89" length="161.26" shape="-373.31,71.00 -354.27,62.88 -334.85,52.17 -312.38,37.01 -292.97,14.42 -275.72,-9.62 -260.33,-38.81"/>
    </edge>
    <edge id="off_ramp_beginning" from="highway_beginning" to="off_ramp_beginning" priority="-1" spreadType="roadCenter" shape="-480.85,104.34 -457.70,97.08 -438.18,92.28 -410.99,84.72 -376.19,73.97">
        <lane id="off_ramp_beginning_0" index="0" speed="13.89" length="64.38" shape="-442.18,91.62 -438.59,90.73 -411.44,83.18 -380.39,73.59"/>
    </edge>
    <edge id="off_ramp_up_stream" from="off_up_stream_beginning" to="highway_beginning" priority="-1" spreadType="center" shape="-571.54,123.82 -545.53,117.37 -508.42,109.07 -480.85,104.34">
        <lane id="off_ramp_up_stream_0" index="0" speed="27.77" length="110.83" shape="-568.82,118.20 -546.63,112.70 -509.35,104.36 -459.95,95.88"/>
        <lane id="off_ramp_up_stream_1" index="1" speed="27.77" length="110.83" shape="-568.05,121.31 -545.90,115.81 -508.73,107.50 -459.41,99.04"/>
        <lane id="off_ramp_up_stream_2" index="2" speed="27.77" length="110.83" shape="-567.28,124.41 -545.16,118.93 -508.11,110.64 -458.87,102.19"/>
        <lane id="off_ramp_up_stream_3" index="3" speed="27.77" length="110.83" shape="-566.51,127.52 -544.43,122.04 -507.49,113.78 -458.33,105.35"/>
    </edge>
    <edge id="on_ramp" from="on_ramp_beginning" to="ramp_meter" priority="-1" spreadType="center" shape="-147.89,-107.95 -55.57,-9.54 -33.56,12.53 -13.86,30.40 -3.74,36.34">
        <lane id="on_ramp_0" index="0" speed="13.89" length="200.49" shape="-146.72,-109.04 -54.42,-10.65 -32.46,11.37 -12.91,29.10 -6.33,32.96"/>
        <lane id="on_ramp_1" index="1" speed="13.89" length="200.49" shape="-149.06,-106.86 -56.72,-8.43 -34.66,13.69 -14.81,31.70 -7.95,35.72"/>
    </edge>
    <edge id="passage_area" from="ramp_meter" to="merge_beginning" priority="-1" spreadType="center" shape="-3.74,36.34 7.86,42.43 15.46,44.79 22.58,46.01 34.04,47.62 42.59,48.61 57.05,50.39 79.43,54.04">
        <lane id="passage_area_0" index="0" speed="13.89" length="38.56" shape="-0.25,38.17 7.86,42.43 15.46,44.79 22.58,46.01 34.04,47.62 36.67,47.93"/>
    </edge>

    <tlLogic id="ramp_meter" type="static" programID="init" offset="0">
        <phase duration="3"  state="Gr"/>
        <phase duration="5"  state="rr"/>
        <phase duration="3"  state="rG"/>
        <phase duration="5"  state="rr"/>
    </tlLogic>

    <junction id="entry" type="dead_end" x="-784.72" y="207.30" incLanes="" intLanes="" shape="-782.46,211.54 -786.98,203.06"/>
    <junction id="highway_beginning" type="priority" x="-480.85" y="104.34" incLanes="off_ramp_up_stream_0 off_ramp_up_stream_1 off_ramp_up_stream_2 off_ramp_up_stream_3" intLanes=":highway_beginning_0_0 :highway_beginning_1_0 :highway_beginning_1_1 :highway_beginning_1_2" shape="-440.33,102.75 -441.68,93.24 -442.66,90.09 -460.22,94.31 -458.06,106.92">
        <request index="0" response="0000" foes="0000" cont="0"/>
        <request index="1" response="0000" foes="0000" cont="0"/>
        <request index="2" response="0000" foes="0000" cont="0"/>
        <request index="3" response="0000" foes="0000" cont="0"/>
    </junction>
    <junction id="higway_end" type="dead_end" x="457.90" y="74.20" incLanes="end_main_road_0 end_main_road_1 end_main_road_2" intLanes="" shape="458.15,69.41 457.65,78.99"/>
    <junction id="merge_beginning" type="priority" x="79.43" y="54.04" incLanes="passage_area_0 main_road_0 main_road_1 main_road_2" intLanes=":merge_beginning_0_0 :merge_beginning_1_0 :merge_beginning_1_1 :merge_beginning_1_2" shape="57.64,59.85 57.99,47.05 53.50,46.98 50.17,47.01 47.43,47.04 44.70,47.00 41.39,46.80 36.93,46.34 36.42,49.51 39.31,49.85 41.57,50.13 43.20,50.35 44.21,50.51 44.59,50.60 44.34,50.64 44.73,60.24">
        <request index="0" response="0000" foes="0000" cont="0"/>
        <request index="1" response="0000" foes="0000" cont="0"/>
        <request index="2" response="0000" foes="0000" cont="0"/>
        <request index="3" response="0000" foes="0000" cont="0"/>
    </junction>
    <junction id="merge_end" type="zipper" x="270.88" y="64.40" incLanes="acceleration_area_0 acceleration_area_1 acceleration_area_2 acceleration_area_3" intLanes=":merge_end_0_0 :merge_end_0_1 :merge_end_0_2" shape="264.85,68.89 265.35,59.30 262.35,58.86 260.22,58.05 258.54,57.05 256.85,56.05 254.72,55.25 251.72,54.84 251.16,67.62">
        <request index="0" response="000" foes="000" cont="0"/>
        <request index="1" response="000" foes="000" cont="0"/>
        <request index="2" response="000" foes="000" cont="0"/>
    </junction>
    <junction id="off_ramp_beginning" type="priority" x="-376.19" y="73.97" incLanes="off_ramp_beginning_0" intLanes=":off_ramp_beginning_0_0 :off_ramp_beginning_0_1" shape="-372.68,72.47 -375.19,66.59 -377.44,68.43 -377.97,69.47 -378.52,70.47 -379.38,71.36 -380.86,72.06 -379.91,75.12 -377.19,74.26 -376.25,73.94 -375.31,73.58 -374.19,73.12">
        <request index="0" response="00" foes="00" cont="0"/>
        <request index="1" response="00" foes="00" cont="0"/>
    </junction>
    <junction id="off_ramp_end" type="dead_end" x="-258.91" y="-38.06" incLanes="off_ramp_0 off_ramp_1" intLanes="" shape="-264.57,-41.05 -258.91,-38.06"/>
    <junction id="off_up_stream_beginning" type="priority" x="-571.54" y="123.82" incLanes="entry_0 entry_1 entry_2" intLanes=":off_up_stream_beginning_0_0 :off_up_stream_beginning_0_1 :off_up_stream_beginning_0_2 :off_up_stream_beginning_0_3" shape="-566.12,129.07 -569.20,116.65 -572.02,117.77 -572.92,118.40 -573.82,119.03 -574.98,119.64 -576.63,120.20 -574.17,129.48 -571.22,129.13 -570.15,129.25 -569.08,129.38 -567.81,129.37">
        <request index="0" response="0000" foes="0000" cont="0"/>
        <request index="1" response="0000" foes="0000" cont="0"/>
        <request index="2" response="0000" foes="0000" cont="0"/>
        <request index="3" response="0000" foes="0000" cont="0"/>
    </junction>
    <junction id="on_ramp_beginning" type="dead_end" x="-147.89" y="-107.95" incLanes="" intLanes="" shape="-150.22,-105.76 -145.56,-110.14"/>
    <junction id="ramp_meter" type="traffic_light" x="-3.74" y="36.34" incLanes="on_ramp_0 on_ramp_1" intLanes=":ramp_meter_0_0 :ramp_meter_0_1" shape="-0.99,39.59 0.50,36.76 -1.87,35.04 -2.55,34.23 -3.22,33.41 -4.13,32.54 -5.52,31.58 -8.76,37.10 -5.99,38.24 -4.91,38.41 -3.83,38.56 -2.58,38.89">
        <request index="0" response="10" foes="10" cont="0"/>
        <request index="1" response="00" foes="01" cont="0"/>
    </junction>

    <connection from="acceleration_area" to="end_main_road" fromLane="1" toLane="0" via=":merge_end_0_0" dir="s" state="M"/>
    <connection from="acceleration_area" to="end_main_road" fromLane="2" toLane="1" via=":merge_end_0_1" dir="s" state="M"/>
    <connection from="acceleration_area" to="end_main_road" fromLane="3" toLane="2" via=":merge_end_0_2" dir="s" state="M"/>
    <connection from="entry" to="off_ramp_up_stream" fromLane="0" toLane="0" via=":off_up_stream_beginning_0_0" dir="s" state="M"/>
    <connection from="entry" to="off_ramp_up_stream" fromLane="0" toLane="1" via=":off_up_stream_beginning_0_1" dir="s" state="M"/>
    <connection from="entry" to="off_ramp_up_stream" fromLane="1" toLane="2" via=":off_up_stream_beginning_0_2" dir="s" state="M"/>
    <connection from="entry" to="off_ramp_up_stream" fromLane="2" toLane="3" via=":off_up_stream_beginning_0_3" dir="s" state="M"/>
    <connection from="main_road" to="acceleration_area" fromLane="0" toLane="1" via=":merge_beginning_1_0" dir="s" state="M"/>
    <connection from="main_road" to="acceleration_area" fromLane="1" toLane="2" via=":merge_beginning_1_1" dir="s" state="M"/>
    <connection from="main_road" to="acceleration_area" fromLane="2" toLane="3" via=":merge_beginning_1_2" dir="s" state="M"/>
    <connection from="off_ramp_beginning" to="off_ramp" fromLane="0" toLane="0" via=":off_ramp_beginning_0_0" dir="s" state="M"/>
    <connection from="off_ramp_beginning" to="off_ramp" fromLane="0" toLane="1" via=":off_ramp_beginning_0_1" dir="s" state="M"/>
    <connection from="off_ramp_up_stream" to="off_ramp_beginning" fromLane="0" toLane="0" via=":highway_beginning_0_0" dir="R" state="M"/>
    <connection from="off_ramp_up_stream" to="main_road" fromLane="1" toLane="0" via=":highway_beginning_1_0" dir="s" state="M"/>
    <connection from="off_ramp_up_stream" to="main_road" fromLane="2" toLane="1" via=":highway_beginning_1_1" dir="s" state="M"/>
    <connection from="off_ramp_up_stream" to="main_road" fromLane="3" toLane="2" via=":highway_beginning_1_2" dir="s" state="M"/>
    <connection from="on_ramp" to="passage_area" fromLane="0" toLane="0" via=":ramp_meter_0_0" tl="ramp_meter" linkIndex="0" dir="s" state="o"/>
    <connection from="on_ramp" to="passage_area" fromLane="1" toLane="0" via=":ramp_meter_0_1" tl="ramp_meter" linkIndex="1" dir="s" state="O"/>
    <connection from="passage_area" to="acceleration_area" fromLane="0" toLane="0" via=":merge_beginning_0_0" dir="s" state="M"/>

    <connection from=":highway_beginning_0" to="off_ramp_beginning" fromLane="0" toLane="0" dir="R" state="M"/>
    <connection from=":highway_beginning_1" to="main_road" fromLane="0" toLane="0" dir="s" state="M"/>
    <connection from=":highway_beginning_1" to="main_road" fromLane="1" toLane="1" dir="s" state="M"/>
    <connection from=":highway_beginning_1" to="main_road" fromLane="2" toLane="2" dir="s" state="M"/>
    <connection from=":merge_beginning_0" to="acceleration_area" fromLane="0" toLane="0" dir="s" state="M"/>
    <connection from=":merge_beginning_1" to="acceleration_area" fromLane="0" toLane="1" dir="s" state="M"/>
    <connection from=":merge_beginning_1" to="acceleration_area" fromLane="1" toLane="2" dir="s" state="M"/>
    <connection from=":merge_beginning_1" to="acceleration_area" fromLane="2" toLane="3" dir="s" state="M"/>
    <connection from=":merge_end_0" to="end_main_road" fromLane="0" toLane="0" dir="s" state="M"/>
    <connection from=":merge_end_0" to="end_main_road" fromLane="1" toLane="1" dir="s" state="M"/>
    <connection from=":merge_end_0" to="end_main_road" fromLane="2" toLane="2" dir="s" state="M"/>
    <connection from=":off_ramp_beginning_0" to="off_ramp" fromLane="0" toLane="0" dir="s" state="M"/>
    <connection from=":off_ramp_beginning_0" to="off_ramp" fromLane="1" toLane="1" dir="s" state="M"/>
    <connection from=":off_up_stream_beginning_0" to="off_ramp_up_stream" fromLane="0" toLane="0" dir="s" state="M"/>
    <connection from=":off_up_stream_beginning_0" to="off_ramp_up_stream" fromLane="1" toLane="1" dir="s" state="M"/>
    <connection from=":off_up_stream_beginning_0" to="off_ramp_up_stream" fromLane="2" toLane="2" dir="s" state="M"/>
    <connection from=":off_up_stream_beginning_0" to="off_ramp_up_stream" fromLane="3" toLane="3" dir="s" state="M"/>
    <connection from=":ramp_meter_0" to="passage_area" fromLane="0" toLane="0" dir="s" state="M"/>
    <connection from=":ramp_meter_0" to="passage_area" fromLane="1" toLane="0" dir="s" state="M"/>

</net>
